gem5 Simulator System.  https://www.gem5.org
gem5 is copyrighted software; use the --copyright option for details.

gem5 version 25.1.0.1
gem5 compiled Jun 16 2026 15:25:48
gem5 started Jun 16 2026 15:35:57
gem5 executing on mbit10, pid 4173580
command line: ./gem5.debug -rs /avx/test_bench.py

Script /avx/test_bench.py not found
Usage
=====
  gem5.debug [gem5 options] script.py [script options]

gem5 is copyrighted software; use the --copyright option for details.

Options
=======
--help, -h              show this help message and exit
--build-info, -B        Show build information
--copyright, -C         Show full copyright information
--readme, -R            Show the readme
--outdir=DIR, -d DIR    Set the output directory to DIR [Default: m5out]
--redirect-stdout, -r   Redirect stdout (& stderr, without -e) to file
--redirect-stderr, -e   Redirect stderr to file
--silent-redirect       Suppress printing a message when redirecting stdout or
                        stderr
--stdout-file=FILE      Filename for -r redirection [Default: simout.txt]
--stderr-file=FILE      Filename for -e redirection [Default: simerr.txt]
--listener-mode={on,off,auto}
                        Port (e.g., gdb) listener mode (auto: Enable if
                        running interactively) [Default: auto]
--allow-remote-connections
                        Port listeners will accept connections from anywhere
                        (0.0.0.0). Default is only localhost.
--interactive, -i       Invoke the interactive interpreter after running the
                        script
--pdb                   Invoke the python debugger before running the script
--path=PATH[:PATH], -p PATH[:PATH]
                        Prepend PATH to the system path when invoking the
                        script
--quiet, -q             Reduce verbosity
--verbose, -v           Increase verbosity
-m mod                  run library module as a script (terminates option
                        list)
-c cmd                  program passed in as string (terminates option list)
-P                      Don't prepend the script directory to the system path.
                        Mimics Python 3's `-P` option.
-s                      IGNORED, only for compatibility with python. don'tadd
                        user site directory to sys.path; also PYTHONNOUSERSITE

Statistics Options
------------------
--stats-file=FILE       Append additional file for statistics output (Defaults
                        to stats.txt if unset)
--stats-help            Display documentation for available stat visitors

Configuration Options
---------------------
--dump-config=FILE      Dump configuration output file [Default: config.ini]
--json-config=FILE      Create JSON output of the configuration [Default:
                        config.json]
--dot-config=FILE       Create DOT & pdf outputs of the configuration
                        [Default: config.dot]
--dot-dvfs-config=FILE  Create DOT & pdf outputs of the DVFS configuration
                        [Default: none]

Debugging Options
-----------------
--debug-break=TICK[,TICK]
                        Create breakpoint(s) at TICK(s) (kills process if no
                        debugger attached)
--debug-help            Print help on debug flags
--debug-flags=FLAG[,FLAG]
                        Sets the flags for debug output (-FLAG disables a
                        flag)
--debug-start=TICK      Start debug output at TICK
--debug-end=TICK        End debug output at TICK
--debug-file=FILE       Sets the output file for debug. Append '.gz' to the
                        name for it to be compressed automatically [Default:
                        cout]
--debug-activate=EXPR[,EXPR]
                        Activate EXPR sim objects
--debug-ignore=EXPR     Ignore EXPR sim objects
--remote-gdb-port=REMOTE_GDB_PORT
                        Remote gdb base port (set to 0 to disable listening)
--show-exit-event-messages
                        Print information about exit events and when they
                        occur

Help Options
------------
--list-sim-objects      List all built-in SimObjects, their params and default
                        values
